goiania_leste_dss/TR3/CTMT_5002413.dss
! ==============================================================================
! ALIMENTADOR CTMT_5002413 - GOIANIA LESTE-5
! Subestacao: Trafo TR3 (GOL-S-TRF-TR3) | Barra MT: 4630 -> PAC_INI: 84799285002413
! ==============================================================================

! 1. Disjuntor de Saida MT do Alimentador
new line.DJ_5002413 phases=3 bus1=4630 bus2=84799285002413 switch=y r1=1e-4 x1=1e-4 length=0.001 units=km

! 2. Linhas de Media Tensao (MT)
new line.52885660 phases=3 bus1=80522735002413.1.2.3 bus2=80522605002413.1.2.3 r1=1.551 x1=0.49 length=0.024808 units=km normamps=114.0
new line.52885725 phases=3 bus1=80521945002413.1.2.3 bus2=80521955002413.1.2.3 r1=1.551 x1=0.49 length=0.021812 units=km normamps=114.0
new line.52885734 phases=3 bus1=80482995002413.1.2.3 bus2=80521065002413.1.2.3 r1=0.188 x1=0.26 length=0.040279 units=km normamps=525.0
new line.52885735 phases=3 bus1=80482995002413.1.2.3 bus2=80482975002413.1.2.3 r1=0.188 x1=0.26 length=0.041144 units=km normamps=525.0
new line.52885736 phases=3 bus1=80482985002413.1.2.3 bus2=80482975002413.1.2.3 r1=0.188 x1=0.26 length=0.039068 units=km normamps=525.0
new line.52885737 phases=3 bus1=80447855002413.1.2.3 bus2=80482985002413.1.2.3 r1=0.188 x1=0.26 length=0.023782 units=km normamps=525.0
new line.52885738 phases=3 bus1=80522925002413.1.2.3 bus2=80522915002413.1.2.3 r1=0.975 x1=0.47 length=0.016383 units=km normamps=152.0
new line.52885755 phases=3 bus1=80522955002413.1.2.3 bus2=80522915002413.1.2.3 r1=1.551 x1=0.49 length=0.0454 units=km normamps=114.0
new line.52885756 phases=3 bus1=80522995002413.1.2.3 bus2=80522955002413.1.2.3 r1=1.551 x1=0.49 length=0.03497 units=km normamps=114.0
new line.52885757 phases=3 bus1=80523005002413.1.2.3 bus2=80522995002413.1.2.3 r1=1.551 x1=0.49 length=0.039827 units=km normamps=114.0
new line.52885758 phases=3 bus1=80523015002413.1.2.3 bus2=80523005002413.1.2.3 r1=1.551 x1=0.49 length=0.034129 units=km normamps=114.0
new line.52885759 phases=3 bus1=80523025002413.1.2.3 bus2=80523015002413.1.2.3 r1=1.551 x1=0.49 length=0.037155 units=km normamps=114.0
new line.52885760 phases=3 bus1=80521685002413.1.2.3 bus2=80523025002413.1.2.3 r1=1.551 x1=0.49 length=0.02865 units=km normamps=114.0
new line.52885761 phases=3 bus1=80521955002413.1.2.3 bus2=80521695002413.1.2.3 r1=1.551 x1=0.49 length=0.025869 units=km normamps=114.0
new line.52885763 phases=3 bus1=80479915002413.1.2.3 bus2=80521115002413.1.2.3 r1=0.195 x1=0.4 length=0.048067 units=km normamps=419.0
new line.52885764 phases=3 bus1=80521125002413.1.2.3 bus2=80521115002413.1.2.3 r1=0.195 x1=0.4 length=0.042956 units=km normamps=419.0
new line.52885765 phases=3 bus1=80521135002413.1.2.3 bus2=80521125002413.1.2.3 r1=0.195 x1=0.4 length=0.034817 units=km normamps=419.0
new line.52885766 phases=3 bus1=80521145002413.1.2.3 bus2=80521135002413.1.2.3 r1=0.195 x1=0.4 length=0.035142 units=km normamps=419.0
new line.52885767 phases=3 bus1=80521155002413.1.2.3 bus2=80521145002413.1.2.3 r1=0.195 x1=0.4 length=0.055792 units=km normamps=419.0
new line.52885768 phases=3 bus1=80521105002413B.1.2.3 bus2=80521185002413.1.2.3 r1=0.195 x1=0.4 length=0.024584 units=km normamps=419.0
new line.52885769 phases=3 bus1=80521185002413.1.2.3 bus2=80521155002413.1.2.3 r1=0.195 x1=0.4 length=0.029777 units=km normamps=419.0
new line.52885799 phases=3 bus1=80521325002413.1.2.3 bus2=80521365002413.1.2.3 r1=0.236 x1=0.27 length=0.022667 units=km normamps=456.0
new line.52885801 phases=3 bus1=80521365002413.1.2.3 bus2=80521385002413.1.2.3 r1=0.236 x1=0.27 length=0.028866 units=km normamps=456.0
new line.52885802 phases=3 bus1=80521385002413.1.2.3 bus2=80521395002413.1.2.3 r1=0.236 x1=0.27 length=0.03064 units=km normamps=456.0
new line.52885803 phases=3 bus1=80521395002413.1.2.3 bus2=80521445002413.1.2.3 r1=0.236 x1=0.27 length=0.028865 units=km normamps=456.0
new line.52885804 phases=3 bus1=80521465002413.1.2.3 bus2=80521475002413.1.2.3 r1=0.195 x1=0.4 length=0.038571 units=km normamps=419.0
new line.52885805 phases=3 bus1=80521475002413B.1.2.3 bus2=80521485002413.1.2.3 r1=0.195 x1=0.4 length=0.037164 units=km normamps=419.0
new line.52885806 phases=3 bus1=80521485002413.1.2.3 bus2=80521495002413.1.2.3 r1=0.195 x1=0.4 length=0.037018 units=km normamps=419.0
new line.52885808 phases=3 bus1=80521505002413B.1.2.3 bus2=80521515002413.1.2.3 r1=1.551 x1=0.49 length=0.013082 units=km normamps=114.0
new line.52885809 phases=3 bus1=80521515002413.1.2.3 bus2=80521525002413.1.2.3 r1=1.551 x1=0.49 length=0.039709 units=km normamps=114.0
new line.52885810 phases=3 bus1=80521525002413.1.2.3 bus2=80521535002413.1.2.3 r1=1.551 x1=0.49 length=0.037445 units=km normamps=114.0
new line.52885811 phases=3 bus1=80521535002413.1.2.3 bus2=80521575002413.1.2.3 r1=1.551 x1=0.49 length=0.032328 units=km normamps=114.0
new line.52885812 phases=3 bus1=80521575002413.1.2.3 bus2=80521585002413.1.2.3 r1=1.551 x1=0.49 length=0.039997 units=km normamps=114.0
new line.52885813 phases=3 bus1=80521585002413.1.2.3 bus2=80521595002413.1.2.3 r1=1.551 x1=0.49 length=0.011925 units=km normamps=114.0
new line.52885814 phases=3 bus1=80521605002413.1.2.3 bus2=80521595002413.1.2.3 r1=1.551 x1=0.49 length=0.006579 units=km normamps=114.0
new line.52885815 phases=3 bus1=80521585002413.1.2.3 bus2=80521615002413.1.2.3 r1=1.551 x1=0.49 length=0.039471 units=km normamps=114.0
new line.52885866 phases=3 bus1=80521615002413.1.2.3 bus2=80521625002413.1.2.3 r1=1.551 x1=0.49 length=0.036239 units=km normamps=114.0
new line.52885867 phases=3 bus1=80521625002413.1.2.3 bus2=80521685002413.1.2.3 r1=1.551 x1=0.49 length=0.040739 units=km normamps=114.0
new line.52885868 phases=3 bus1=80521695002413.1.2.3 bus2=80521685002413.1.2.3 r1=1.551 x1=0.49 length=0.029066 units=km normamps=114.0
new line.52885869 phases=3 bus1=80521505002413.1.2.3 bus2=80521705002413.1.2.3 r1=0.195 x1=0.4 length=0.044014 units=km normamps=419.0
new line.52885870 phases=3 bus1=80521705002413.1.2.3 bus2=80521715002413.1.2.3 r1=0.195 x1=0.4 length=0.042256 units=km normamps=419.0
new line.52885871 phases=3 bus1=80521715002413.1.2.3 bus2=80521725002413.1.2.3 r1=0.195 x1=0.4 length=0.036657 units=km normamps=419.0
new line.52885872 phases=3 bus1=80521725002413.1.2.3 bus2=80521735002413.1.2.3 r1=0.195 x1=0.4 length=0.034373 units=km normamps=419.0
new line.52885873 phases=3 bus1=80521735002413.1.2.3 bus2=80521795002413.1.2.3 r1=0.195 x1=0.4 length=0.031872 units=km normamps=419.0
new line.52885874 phases=3 bus1=80521795002413.1.2.3 bus2=80521805002413.1.2.3 r1=0.195 x1=0.4 length=0.043014 units=km normamps=419.0
new line.52885875 phases=3 bus1=80521805002413.1.2.3 bus2=80521025002413.1.2.3 r1=0.195 x1=0.4 length=0.023177 units=km normamps=419.0
new line.52885916 phases=3 bus1=80522605002413.1.2.3 bus2=80522595002413.1.2.3 r1=1.551 x1=0.49 length=0.032557 units=km normamps=114.0
new line.52885917 phases=3 bus1=80522615002413.1.2.3 bus2=80522605002413.1.2.3 r1=1.551 x1=0.49 length=0.040104 units=km normamps=114.0
new line.52885918 phases=3 bus1=80522625002413.1.2.3 bus2=80522615002413.1.2.3 r1=1.551 x1=0.49 length=0.051553 units=km normamps=114.0
new line.52885919 phases=3 bus1=80522625002413.1.2.3 bus2=80480845002413B.1.2.3 r1=1.551 x1=0.49 length=0.02894 units=km normamps=114.0
new line.52885920 phases=3 bus1=80480845002413.1.2.3 bus2=80522635002413B.1.2.3 r1=0.195 x1=0.4 length=0.024147 units=km normamps=419.0
new line.52885937 phases=3 bus1=80522635002413.1.2.3 bus2=80480895002413.1.2.3 r1=0.195 x1=0.4 length=0.048554 units=km normamps=419.0
new line.52885938 phases=3 bus1=80480895002413.1.2.3 bus2=80480905002413.1.2.3 r1=0.195 x1=0.4 length=0.033991 units=km normamps=419.0
new line.52885939 phases=3 bus1=80480905002413.1.2.3 bus2=80480935002413.1.2.3 r1=0.195 x1=0.4 length=0.033729 units=km normamps=419.0
new line.52885940 phases=3 bus1=80480935002413.1.2.3 bus2=80480955002413.1.2.3 r1=0.195 x1=0.4 length=0.035007 units=km normamps=419.0
new line.52885941 phases=3 bus1=80480955002413.1.2.3 bus2=80479915002413.1.2.3 r1=0.195 x1=0.4 length=0.032855 units=km normamps=419.0
new line.52885952 phases=3 bus1=80521065002413.1.2.3 bus2=80521075002413.1.2.3 r1=0.195 x1=0.4 length=0.040656 units=km normamps=419.0
new line.52885953 phases=3 bus1=80521075002413B.1.2.3 bus2=80521085002413.1.2.3 r1=0.195 x1=0.4 length=0.035844 units=km normamps=419.0
new line.52885954 phases=3 bus1=80521085002413.1.2.3 bus2=80521095002413.1.2.3 r1=0.195 x1=0.4 length=0.041059 units=km normamps=419.0
new line.52885955 phases=3 bus1=80521095002413.1.2.3 bus2=80521105002413.1.2.3 r1=0.195 x1=0.4 length=0.045 units=km normamps=419.0
new line.52885958 phases=3 bus1=80484015002413.1.2.3 bus2=80484005002413.1.2.3 r1=1.551 x1=0.49 length=0.023872 units=km normamps=114.0
new line.52885959 phases=3 bus1=80526975002413.1.2.3 bus2=80484005002413.1.2.3 r1=1.551 x1=0.49 length=0.016468 units=km normamps=114.0
new line.52885960 phases=3 bus1=80484025002413.1.2.3 bus2=80484015002413.1.2.3 r1=1.551 x1=0.49 length=0.040446 units=km normamps=114.0
new line.52885967 phases=3 bus1=80521025002413.1.2.3 bus2=80527135002413.1.2.3 r1=0.195 x1=0.4 length=0.051389 units=km normamps=419.0
new line.52885968 phases=3 bus1=80527155002413.1.2.3 bus2=80527145002413.1.2.3 r1=1.551 x1=0.49 length=0.026537 units=km normamps=114.0
new line.52885969 phases=3 bus1=80527135002413B.1.2.3 bus2=80527155002413.1.2.3 r1=1.551 x1=0.49 length=0.01364 units=km normamps=114.0
new line.52885970 phases=3 bus1=80527135002413.1.2.3 bus2=80527165002413.1.2.3 r1=0.195 x1=0.4 length=0.045289 units=km normamps=419.0
new line.52885971 phases=3 bus1=80527165002413B.1.2.3 bus2=80527065002413.1.2.3 r1=2.389 x1=0.52 length=0.021628 units=km normamps=90.0
new line.52885972 phases=3 bus1=80527165002413.1.2.3 bus2=80527175002413.1.2.3 r1=0.195 x1=0.4 length=0.034917 units=km normamps=419.0
new line.52885973 phases=3 bus1=80527175002413.1.2.3 bus2=84928795002413.1.2.3 r1=0.195 x1=0.4 length=0.011827 units=km normamps=419.0
new line.52885974 phases=3 bus1=80526745002413.1.2.3 bus2=80527185002413.1.2.3 r1=0.984 x1=0.49 length=0.012514 units=km normamps=170.0
new line.52885975 phases=3 bus1=80527185002413.1.2.3 bus2=80527195002413.1.2.3 r1=0.195 x1=0.4 length=0.039626 units=km normamps=419.0
new line.52885977 phases=3 bus1=80527195002413.1.2.3 bus2=80524695002413.1.2.3 r1=0.195 x1=0.4 length=0.027063 units=km normamps=419.0
new line.52885978 phases=3 bus1=80524695002413B.1.2.3 bus2=80484025002413.1.2.3 r1=1.551 x1=0.49 length=0.032432 units=km normamps=114.0
new line.52885979 phases=3 bus1=80524705002413.1.2.3 bus2=80524685002413B.1.2.3 r1=1.551 x1=0.49 length=0.018834 units=km normamps=114.0
new line.52885998 phases=3 bus1=80526695002413.1.2.3 bus2=80526705002413.1.2.3 r1=0.975 x1=0.47 length=0.025854 units=km normamps=152.0
new line.52885999 phases=3 bus1=80526705002413.1.2.3 bus2=80526715002413.1.2.3 r1=0.975 x1=0.47 length=0.03681 units=km normamps=152.0
new line.52886011 phases=3 bus1=80483595002413.1.2.3 bus2=80483605002413.1.2.3 r1=0.195 x1=0.4 length=0.023068 units=km normamps=419.0
new line.52886012 phases=3 bus1=80483605002413.1.2.3 bus2=80483615002413.1.2.3 r1=0.195 x1=0.4 length=0.020704 units=km normamps=419.0
new line.52886013 phases=3 bus1=80483615002413.1.2.3 bus2=80483625002413.1.2.3 r1=0.195 x1=0.4 length=0.022424 units=km normamps=419.0
new line.52886014 phases=3 bus1=80483625002413.1.2.3 bus2=80483765002413.1.2.3 r1=0.195 x1=0.4 length=0.013907 units=km normamps=419.0
new line.52886015 phases=3 bus1=80483765002413.1.2.3 bus2=80527105002413.1.2.3 r1=0.195 x1=0.4 length=0.035804 units=km normamps=419.0
new line.52886016 phases=3 bus1=80527105002413.1.2.3 bus2=80527115002413.1.2.3 r1=0.195 x1=0.4 length=0.026547 units=km normamps=419.0
new line.52886017 phases=3 bus1=80527115002413.1.2.3 bus2=80527125002413.1.2.3 r1=0.195 x1=0.4 length=0.028795 units=km normamps=419.0
new line.52886018 phases=3 bus1=80527125002413.1.2.3 bus2=80524655002413B.1.2.3 r1=0.195 x1=0.4 length=0.023937 units=km normamps=419.0
new line.52886019 phases=3 bus1=80483765002413.1.2.3 bus2=80524675002413.1.2.3 r1=0.195 x1=0.4 length=0.042411 units=km normamps=419.0
new line.52886020 phases=3 bus1=80524675002413.1.2.3 bus2=80524685002413.1.2.3 r1=0.195 x1=0.4 length=0.03235 units=km normamps=419.0
new line.52886021 phases=3 bus1=80524685002413.1.2.3 bus2=80524695002413.1.2.3 r1=0.195 x1=0.4 length=0.021105 units=km normamps=419.0
new line.52886022 phases=3 bus1=80524705002413.1.2.3 bus2=80524715002413.1.2.3 r1=1.551 x1=0.49 length=0.025375 units=km normamps=114.0
new line.52886023 phases=3 bus1=80524715002413.1.2.3 bus2=80524725002413.1.2.3 r1=1.551 x1=0.49 length=0.027695 units=km normamps=114.0
new line.52886024 phases=3 bus1=80526745002413.1.2.3 bus2=80526755002413.1.2.3 r1=0.975 x1=0.47 length=0.023546 units=km normamps=152.0
new line.52886025 phases=3 bus1=80526755002413.1.2.3 bus2=80526795002413.1.2.3 r1=0.975 x1=0.47 length=0.015874 units=km normamps=152.0
new line.52886026 phases=3 bus1=80526805002413.1.2.3 bus2=80526795002413.1.2.3 r1=0.975 x1=0.47 length=0.009372 units=km normamps=152.0
new line.52886027 phases=3 bus1=80526825002413.1.2.3 bus2=80526815002413.1.2.3 r1=0.195 x1=0.4 length=0.030504 units=km normamps=419.0
new line.52886028 phases=3 bus1=80526825002413.1.2.3 bus2=80526835002413.1.2.3 r1=0.195 x1=0.4 length=0.01446 units=km normamps=419.0
new line.52886029 phases=3 bus1=80526835002413.1.2.3 bus2=80526845002413.1.2.3 r1=0.195 x1=0.4 length=0.031845 units=km normamps=419.0
new line.52886030 phases=3 bus1=80526845002413.1.2.3 bus2=80526855002413.1.2.3 r1=0.195 x1=0.4 length=0.021056 units=km normamps=419.0
new line.52886031 phases=3 bus1=80526855002413.1.2.3 bus2=80526865002413.1.2.3 r1=0.195 x1=0.4 length=0.025392 units=km normamps=419.0
new line.52886032 phases=3 bus1=80526865002413.1.2.3 bus2=80483595002413.1.2.3 r1=0.195 x1=0.4 length=0.039335 units=km normamps=419.0
new line.52886036 phases=3 bus1=80526895002413B.1.2.3 bus2=80526715002413.1.2.3 r1=0.975 x1=0.47 length=0.011059 units=km normamps=152.0
new line.52886045 phases=3 bus1=80527145002413.1.2.3 bus2=80527775002413.1.2.3 r1=1.551 x1=0.49 length=0.052734 units=km normamps=114.0
new line.52886048 phases=3 bus1=80484495002413.1.2.3 bus2=80484505002413.1.2.3 r1=0.188 x1=0.26 length=0.030503 units=km normamps=525.0
new line.52886049 phases=3 bus1=80484505002413.1.2.3 bus2=80484485002413.1.2.3 r1=0.188 x1=0.26 length=0.031746 units=km normamps=525.0
new line.52886050 phases=3 bus1=80484485002413.1.2.3 bus2=80484475002413.1.2.3 r1=0.188 x1=0.26 length=0.038706 units=km normamps=525.0
new line.52886051 phases=3 bus1=80484475002413.1.2.3 bus2=80484465002413.1.2.3 r1=0.188 x1=0.26 length=0.037942 units=km normamps=525.0
new line.52886052 phases=3 bus1=80484465002413.1.2.3 bus2=80447855002413.1.2.3 r1=0.188 x1=0.26 length=0.044144 units=km normamps=525.0
new line.52886053 phases=3 bus1=80444155002413.1.2.3 bus2=80444165002413.1.2.3 r1=0.188 x1=0.26 length=0.009636 units=km normamps=525.0
new line.52886054 phases=3 bus1=80444165002413.1.2.3 bus2=80439925002413.1.2.3 r1=0.188 x1=0.26 length=0.018162 units=km normamps=525.0
new line.52886055 phases=3 bus1=80444145002413.1.2.3 bus2=80444155002413.1.2.3 r1=0.188 x1=0.26 length=0.008757 units=km normamps=525.0
new line.52886056 phases=3 bus1=80484495002413.1.2.3 bus2=80444055002413.1.2.3 r1=0.188 x1=0.26 length=0.023935 units=km normamps=525.0
new line.52886057 phases=3 bus1=80444055002413.1.2.3 bus2=80444085002413.1.2.3 r1=0.188 x1=0.26 length=0.016863 units=km normamps=525.0
new line.52886058 phases=3 bus1=80444085002413.1.2.3 bus2=80444145002413.1.2.3 r1=0.188 x1=0.26 length=0.017594 units=km normamps=525.0
new line.52886059 phases=3 bus1=80439925002413.1.2.3 bus2=80529625002413.1.2.3 r1=0.188 x1=0.26 length=0.030898 units=km normamps=525.0
new line.52886067 phases=3 bus1=80481045002413.1.2.3 bus2=80480835002413.1.2.3 r1=0.195 x1=0.4 length=0.031974 units=km normamps=419.0
new line.52886068 phases=3 bus1=80480835002413.1.2.3 bus2=80480845002413.1.2.3 r1=0.195 x1=0.4 length=0.013855 units=km normamps=419.0
new line.52886198 phases=3 bus1=80522925002413.1.2.3 bus2=80529635002413.1.2.3 r1=0.975 x1=0.47 length=0.005177 units=km normamps=152.0
new line.52886200 phases=3 bus1=80521465002413.1.2.3 bus2=80480115002413.1.2.3 r1=0.236 x1=0.27 length=0.031348 units=km normamps=456.0
new line.53106515 phases=3 bus1=82271505002413.1.2.3 bus2=82272575002413B.1.2.3 r1=0.975 x1=0.46 length=0.010571 units=km normamps=160.0
new line.53106516 phases=3 bus1=82272565002413.1.2.3 bus2=82272575002413.1.2.3 r1=0.236 x1=0.27 length=0.021633 units=km normamps=456.0
new line.53106517 phases=3 bus1=82272575002413.1.2.3 bus2=82272585002413.1.2.3 r1=0.236 x1=0.27 length=0.027949 units=km normamps=456.0
new line.53106518 phases=3 bus1=82272585002413.1.2.3 bus2=82271435002413.1.2.3 r1=0.236 x1=0.27 length=0.00971 units=km normamps=456.0
new line.53106519 phases=3 bus1=82272595002413.1.2.3 bus2=82271435002413.1.2.3 r1=0.195 x1=0.4 length=0.006249 units=km normamps=419.0
new line.53106520 phases=3 bus1=82272585002413.1.2.3 bus2=82272605002413.1.2.3 r1=0.236 x1=0.27 length=0.037444 units=km normamps=456.0
new line.53106522 phases=3 bus1=82272625002413.1.2.3 bus2=82272645002413.1.2.3 r1=0.236 x1=0.27 length=0.009204 units=km normamps=456.0
new line.53106543 phases=3 bus1=82279775002413.1.2.3 bus2=82281725002413.1.2.3 r1=0.306 x1=0.42 length=0.006548 units=km normamps=314.0
new line.53106551 phases=3 bus1=82279735002413.1.2.3 bus2=82279725002413.1.2.3 r1=0.236 x1=0.27 length=0.011262 units=km normamps=456.0
new line.53106552 phases=3 bus1=82279745002413B.1.2.3 bus2=82279735002413.1.2.3 r1=0.236 x1=0.27 length=0.029124 units=km normamps=456.0
new line.53106553 phases=3 bus1=82279775002413.1.2.3 bus2=82279745002413.1.2.3 r1=0.306 x1=0.42 length=0.052299 units=km normamps=314.0
new line.53106554 phases=3 bus1=82279795002413.1.2.3 bus2=82279785002413.1.2.3 r1=0.306 x1=0.42 length=0.039276 units=km normamps=314.0
new line.53106555 phases=3 bus1=82279785002413.1.2.3 bus2=82279775002413.1.2.3 r1=0.306 x1=0.42 length=0.047066 units=km normamps=314.0
new line.53106556 phases=3 bus1=82279805002413.1.2.3 bus2=82279795002413.1.2.3 r1=0.306 x1=0.42 length=0.029741 units=km normamps=314.0
new line.53106557 phases=3 bus1=82279825002413.1.2.3 bus2=82279815002413.1.2.3 r1=0.306 x1=0.42 length=0.025747 units=km normamps=314.0
new line.53106558 phases=3 bus1=82275025002413.1.2.3 bus2=92036975002413.1.2.3 r1=0.975 x1=0.47 length=0.012009 units=km normamps=152.0
new line.53106559 phases=3 bus1=82275035002413.1.2.3 bus2=82275045002413.1.2.3 r1=0.975 x1=0.47 length=0.034576 units=km normamps=152.0
new line.53106560 phases=3 bus1=82276825002413B.1.2.3 bus2=82276815002413.1.2.3 r1=1.551 x1=0.49 length=0.027928 units=km normamps=114.0
new line.53106561 phases=3 bus1=82276845002413.1.2.3 bus2=82276835002413.1.2.3 r1=0.195 x1=0.4 length=0.027533 units=km normamps=419.0
new line.53106562 phases=3 bus1=82276855002413.1.2.3 bus2=82276845002413.1.2.3 r1=0.195 x1=0.4 length=0.033886 units=km normamps=419.0
new line.53106563 phases=3 bus1=82276865002413.1.2.3 bus2=82276855002413.1.2.3 r1=0.195 x1=0.4 length=0.032594 units=km normamps=419.0
new line.53106564 phases=3 bus1=82276875002413.1.2.3 bus2=82276855002413.1.2.3 r1=0.195 x1=0.4 length=0.005209 units=km normamps=419.0
new line.53106565 phases=3 bus1=82276885002413.1.2.3 bus2=82276865002413.1.2.3 r1=0.195 x1=0.4 length=0.034337 units=km normamps=419.0
new line.53106566 phases=3 bus1=82276895002413.1.2.3 bus2=82276885002413.1.2.3 r1=0.195 x1=0.4 length=0.037095 units=km normamps=419.0
new line.53106567 phases=3 bus1=82276905002413.1.2.3 bus2=82276895002413.1.2.3 r1=0.195 x1=0.4 length=0.034782 units=km normamps=419.0
new line.53106568 phases=3 bus1=82276915002413.1.2.3 bus2=82276905002413.1.2.3 r1=0.195 x1=0.4 length=0.02346 units=km normamps=419.0
new line.53106569 phases=3 bus1=82276925002413.1.2.3 bus2=82276905002413.1.2.3 r1=0.195 x1=0.4 length=0.03115 units=km normamps=419.0
new line.53106570 phases=3 bus1=82276935002413.1.2.3 bus2=82276925002413.1.2.3 r1=0.195 x1=0.4 length=0.027438 units=km normamps=419.0
new line.53106571 phases=3 bus1=82276965002413.1.2.3 bus2=82276935002413.1.2.3 r1=0.195 x1=0.4 length=0.036308 units=km normamps=419.0
new line.53106572 phases=3 bus1=82276975002413.1.2.3 bus2=82276965002413.1.2.3 r1=0.195 x1=0.4 length=0.032035 units=km normamps=419.0
new line.53106573 phases=3 bus1=82271435002413.1.2.3 bus2=82276975002413B.1.2.3 r1=0.236 x1=0.27 length=0.032377 units=km normamps=456.0
new line.53106574 phases=3 bus1=82279845002413.1.2.3 bus2=90983035002413.1.2.3 r1=0.306 x1=0.42 length=0.021256 units=km normamps=314.0
new line.53106575 phases=3 bus1=82279835002413.1.2.3 bus2=82279825002413.1.2.3 r1=0.306 x1=0.42 length=0.032865 units=km normamps=314.0
new line.53106576 phases=3 bus1=82279845002413.1.2.3 bus2=82278925002413.1.2.3 r1=1.551 x1=0.49 length=0.009645 units=km normamps=114.0
new line.53106577 phases=3 bus1=82279865002413.1.2.3 bus2=82279845002413.1.2.3 r1=0.306 x1=0.42 length=0.024624 units=km normamps=314.0
new line.53106579 phases=3 bus1=82279865002413B.1.2.3 bus2=82278915002413.1.2.3 r1=1.551 x1=0.49 length=0.010122 units=km normamps=114.0
new line.53106581 phases=3 bus1=82279815002413.1.2.3 bus2=82279885002413.1.2.3 r1=0.306 x1=0.42 length=0.047215 units=km normamps=314.0
new line.53106582 phases=3 bus1=82279885002413.1.2.3 bus2=82279895002413.1.2.3 r1=0.306 x1=0.42 length=0.014451 units=km normamps=314.0
new line.53106583 phases=3 bus1=82279895002413.1.2.3 bus2=82279805002413.1.2.3 r1=0.306 x1=0.42 length=0.049021 units=km normamps=314.0
new line.53106584 phases=3 bus1=82279895002413B.1.2.3 bus2=82279905002413.1.2.3 r1=1.551 x1=0.49 length=0.013015 units=km normamps=114.0
new line.53106585 phases=3 bus1=82279905002413.1.2.3 bus2=82278845002413.1.2.3 r1=1.551 x1=0.49 length=0.008432 units=km normamps=114.0
new line.53106591 phases=3 bus1=82277145002413.1.2.3 bus2=82277155002413.1.2.3 r1=0.975 x1=0.47 length=0.042113 units=km normamps=152.0
new line.53106592 phases=3 bus1=82277165002413.1.2.3 bus2=82277145002413.1.2.3 r1=0.975 x1=0.47 length=0.006192 units=km normamps=152.0
new line.53106593 phases=3 bus1=82277195002413.1.2.3 bus2=82277155002413.1.2.3 r1=0.975 x1=0.47 length=0.007209 units=km normamps=152.0
new line.53106594 phases=3 bus1=82277225002413.1.2.3 bus2=82276925002413.1.2.3 r1=1.551 x1=0.49 length=0.037221 units=km normamps=114.0
new line.53106595 phases=3 bus1=82277235002413.1.2.3 bus2=82277225002413.1.2.3 r1=1.551 x1=0.49 length=0.007608 units=km normamps=114.0
new line.53106596 phases=3 bus1=82277355002413.1.2.3 bus2=82277315002413B.1.2.3 r1=0.613 x1=0.45 length=0.029715 units=km normamps=203.0
new line.53106597 phases=3 bus1=82277365002413.1.2.3 bus2=82277355002413.1.2.3 r1=0.613 x1=0.45 length=0.026996 units=km normamps=203.0
new line.53106598 phases=3 bus1=82277375002413.1.2.3 bus2=82277365002413.1.2.3 r1=0.613 x1=0.45 length=0.033632 units=km normamps=203.0
new line.53106599 phases=3 bus1=82277385002413.1.2.3 bus2=82277375002413.1.2.3 r1=0.975 x1=0.47 length=0.011659 units=km normamps=152.0
new line.53106600 phases=3 bus1=82277395002413.1.2.3 bus2=82277385002413.1.2.3 r1=0.975 x1=0.47 length=0.03083 units=km normamps=152.0
new line.53106601 phases=3 bus1=82277175002413.1.2.3 bus2=82277395002413.1.2.3 r1=0.975 x1=0.47 length=0.043141 units=km normamps=152.0
new line.53106602 phases=3 bus1=82277365002413.1.2.3 bus2=82277425002413.1.2.3 r1=0.613 x1=0.45 length=0.049475 units=km normamps=203.0
new line.53106603 phases=3 bus1=82277425002413.1.2.3 bus2=82277435002413.1.2.3 r1=0.613 x1=0.45 length=0.036138 units=km normamps=203.0
new line.53106604 phases=3 bus1=82277435002413.1.2.3 bus2=82277455002413.1.2.3 r1=0.613 x1=0.45 length=0.034722 units=km normamps=203.0
new line.53106605 phases=3 bus1=82277155002413.1.2.3 bus2=82277175002413.1.2.3 r1=0.975 x1=0.47 length=0.031962 units=km normamps=152.0
new line.53106632 phases=3 bus1=82277315002413.1.2.3 bus2=82277735002413.1.2.3 r1=0.613 x1=0.45 length=0.046015 units=km normamps=203.0
new line.53106633 phases=3 bus1=82277735002413.1.2.3 bus2=82277725002413.1.2.3 r1=0.613 x1=0.45 length=0.010226 units=km normamps=203.0
new line.53106634 phases=3 bus1=82276835002413.1.2.3 bus2=82277735002413.1.2.3 r1=0.195 x1=0.4 length=0.023937 units=km normamps=419.0
new line.53106638 phases=3 bus1=82277775002413.1.2.3 bus2=94965665002413.1.2.3 r1=0.195 x1=0.4 length=0.003891 units=km normamps=419.0
new line.53106639 phases=3 bus1=82277785002413B.1.2.3 bus2=82277775002413.1.2.3 r1=0.195 x1=0.4 length=0.018798 units=km normamps=419.0
new line.53106640 phases=3 bus1=82277735002413.1.2.3 bus2=82277785002413.1.2.3 r1=0.195 x1=0.4 length=0.01106 units=km normamps=419.0
new line.53106641 phases=3 bus1=82277795002413.1.2.3 bus2=82277725002413.1.2.3 r1=0.975 x1=0.47 length=0.022426 units=km normamps=152.0
new line.53106642 phases=3 bus1=82277805002413.1.2.3 bus2=82277795002413.1.2.3 r1=0.975 x1=0.47 length=0.006634 units=km normamps=152.0
new line.53106643 phases=3 bus1=82277815002413.1.2.3 bus2=82277795002413.1.2.3 r1=0.975 x1=0.47 length=0.025645 units=km normamps=152.0
new line.53106644 phases=3 bus1=82277865002413.1.2.3 bus2=82277845002413.1.2.3 r1=1.551 x1=0.49 length=0.036826 units=km normamps=114.0
new line.53106645 phases=3 bus1=82277845002413.1.2.3 bus2=82277875002413.1.2.3 r1=1.551 x1=0.49 length=0.030092 units=km normamps=114.0
new line.53106646 phases=3 bus1=82277905002413.1.2.3 bus2=82277915002413.1.2.3 r1=0.975 x1=0.47 length=0.022064 units=km normamps=152.0
new line.53106647 phases=3 bus1=82277925002413.1.2.3 bus2=82277905002413.1.2.3 r1=0.975 x1=0.47 length=0.00736 units=km normamps=152.0
new line.53106651 phases=3 bus1=82277915002413.1.2.3 bus2=82277935002413.1.2.3 r1=0.975 x1=0.47 length=0.007444 units=km normamps=152.0
new line.53106652 phases=3 bus1=82277945002413.1.2.3 bus2=82277935002413.1.2.3 r1=0.975 x1=0.47 length=0.03376 units=km normamps=152.0
new line.53106653 phases=3 bus1=82277935002413.1.2.3 bus2=82277965002413.1.2.3 r1=0.975 x1=0.47 length=0.010277 units=km normamps=152.0
new line.53106654 phases=3 bus1=82277955002413.1.2.3 bus2=82277945002413.1.2.3 r1=0.975 x1=0.47 length=0.034782 units=km normamps=152.0
new line.53106655 phases=3 bus1=82277935002413.1.2.3 bus2=82277975002413.1.2.3 r1=0.975 x1=0.47 length=0.031501 units=km normamps=152.0
new line.53106656 phases=3 bus1=82277875002413.1.2.3 bus2=82277995002413.1.2.3 r1=1.551 x1=0.49 length=0.023519 units=km normamps=114.0
new line.53106657 phases=3 bus1=82277995002413.1.2.3 bus2=82278005002413.1.2.3 r1=0.975 x1=0.47 length=0.025635 units=km normamps=152.0
new line.53106658 phases=3 bus1=82277965002413.1.2.3 bus2=82278045002413.1.2.3 r1=0.975 x1=0.47 length=0.025584 units=km normamps=152.0
new line.53106662 phases=3 bus1=82278135002413.1.2.3 bus2=82278145002413.1.2.3 r1=0.975 x1=0.47 length=0.022956 units=km normamps=152.0
new line.53106664 phases=3 bus1=82278155002413.1.2.3 bus2=82278145002413.1.2.3 r1=0.975 x1=0.47 length=0.013952 units=km normamps=152.0
new line.53106665 phases=3 bus1=82278145002413.1.2.3 bus2=82278165002413.1.2.3 r1=0.975 x1=0.47 length=0.024306 units=km normamps=152.0
new line.53106666 phases=3 bus1=82278165002413.1.2.3 bus2=82278175002413.1.2.3 r1=0.975 x1=0.47 length=0.024502 units=km normamps=152.0
new line.53106667 phases=3 bus1=82278175002413.1.2.3 bus2=82277815002413.1.2.3 r1=0.975 x1=0.47 length=0.006649 units=km normamps=152.0
new line.53106668 phases=3 bus1=82278175002413.1.2.3 bus2=82276825002413.1.2.3 r1=0.975 x1=0.47 length=0.028654 units=km normamps=152.0
...

! 3. Chaves Seccionadoras MT
new line.SC_5271686 phases=3 bus1=80521075002413.1.2.3 bus2=80521075002413B.1.2.3 switch=y r1=1e-4 x1=1e-4 length=0.001 units=km
new line.SC_5271689 phases=3 bus1=80521475002413.1.2.3 bus2=80521475002413B.1.2.3 switch=y r1=1e-4 x1=1e-4 length=0.001 units=km
new line.SC_5271694 phases=3 bus1=80524655002413.1.2.3 bus2=80524655002413B.1.2.3 switch=y r1=1e-4 x1=1e-4 length=0.001 units=km
new line.SC_5271779 phases=3 bus1=80480845002413.1.2.3 bus2=80480845002413B.1.2.3 switch=y r1=1e-4 x1=1e-4 length=0.001 units=km
new line.SC_5271781 phases=3 bus1=80521505002413.1.2.3 bus2=80521505002413B.1.2.3 switch=y r1=1e-4 x1=1e-4 length=0.001 units=km
new line.SC_5271796 phases=3 bus1=80524695002413.1.2.3 bus2=80524695002413B.1.2.3 switch=y r1=1e-4 x1=1e-4 length=0.001 units=km
new line.SC_5271797 phases=3 bus1=80524685002413.1.2.3 bus2=80524685002413B.1.2.3 switch=y r1=1e-4 x1=1e-4 length=0.001 units=km
new line.SC_5271798 phases=3 bus1=80527165002413.1.2.3 bus2=80527165002413B.1.2.3 switch=y r1=1e-4 x1=1e-4 length=0.001 units=km
new line.SC_5271801 phases=3 bus1=80526895002413.1.2.3 bus2=80526895002413B.1.2.3 switch=y r1=1e-4 x1=1e-4 length=0.001 units=km
new line.SC_5271811 phases=3 bus1=80527135002413.1.2.3 bus2=80527135002413B.1.2.3 switch=y r1=1e-4 x1=1e-4 length=0.001 units=km
new line.SC_5288845 phases=3 bus1=82280405002413.1.2.3 bus2=82280405002413B.1.2.3 switch=y r1=1e-4 x1=1e-4 length=0.001 units=km
new line.SC_5288882 phases=3 bus1=82276975002413.1.2.3 bus2=82276975002413B.1.2.3 switch=y r1=1e-4 x1=1e-4 length=0.001 units=km
new line.SC_5288883 phases=3 bus1=82279745002413.1.2.3 bus2=82279745002413B.1.2.3 switch=y r1=1e-4 x1=1e-4 length=0.001 units=km
new line.SC_5288884 phases=3 bus1=82277315002413.1.2.3 bus2=82277315002413B.1.2.3 switch=y r1=1e-4 x1=1e-4 length=0.001 units=km
new line.SC_5288885 phases=3 bus1=82277785002413.1.2.3 bus2=82277785002413B.1.2.3 switch=y r1=1e-4 x1=1e-4 length=0.001 units=km
new line.SC_5288888 phases=3 bus1=80529675002413.1.2.3 bus2=80529675002413B.1.2.3 switch=y r1=1e-4 x1=1e-4 length=0.001 units=km
new line.SC_5288890 phases=3 bus1=82276465002413.1.2.3 bus2=82276465002413B.1.2.3 switch=y r1=1e-4 x1=1e-4 length=0.001 units=km
new line.SC_5288977 phases=3 bus1=82278115002413.1.2.3 bus2=82278115002413B.1.2.3 switch=y r1=1e-4 x1=1e-4 length=0.001 units=km
new line.SC_5288981 phases=3 bus1=82278395002413.1.2.3 bus2=82278395002413B.1.2.3 switch=y r1=1e-4 x1=1e-4 length=0.001 units=km
new line.SC_5288985 phases=3 bus1=80587815002413.1.2.3 bus2=80587815002413B.1.2.3 switch=y r1=1e-4 x1=1e-4 length=0.001 units=km
new line.SC_5288987 phases=3 bus1=82280325002413.1.2.3 bus2=82280325002413B.1.2.3 switch=y r1=1e-4 x1=1e-4 length=0.001 units=km
new line.SC_5288988 phases=3 bus1=82276235002413.1.2.3 bus2=82276235002413B.1.2.3 switch=y r1=1e-4 x1=1e-4 length=0.001 units=km
new line.SC_5288990 phases=3 bus1=82278925002413.1.2.3 bus2=82278925002413B.1.2.3 switch=y r1=1e-4 x1=1e-4 length=0.001 units=km
new line.SC_5288991 phases=3 bus1=82279895002413.1.2.3 bus2=82279895002413B.1.2.3 switch=y r1=1e-4 x1=1e-4 length=0.001 units=km
new line.SC_5288992 phases=3 bus1=82281125002413.1.2.3 bus2=82281125002413B.1.2.3 switch=y r1=1e-4 x1=1e-4 length=0.001 units=km
new line.SC_5288995 phases=3 bus1=82276825002413.1.2.3 bus2=82276825002413B.1.2.3 switch=y r1=1e-4 x1=1e-4 length=0.001 units=km
new line.SC_5297081 phases=3 bus1=82275535002413.1.2.3 bus2=82275535002413B.1.2.3 switch=y r1=1e-4 x1=1e-4 length=0.001 units=km
new line.SC_5297329 phases=3 bus1=82274715002413.1.2.3 bus2=82274715002413B.1.2.3 switch=y r1=1e-4 x1=1e-4 length=0.001 units=km
new line.SC_5548259 phases=3 bus1=82279875002413.1.2.3 bus2=82279875002413B.1.2.3 switch=y r1=1e-4 x1=1e-4 length=0.001 units=km
new line.SC_5548260 phases=3 bus1=93776355002413.1.2.3 bus2=93776355002413B.1.2.3 switch=y r1=1e-4 x1=1e-4 length=0.001 units=km
new line.SC_5548261 phases=3 bus1=93776365002413.1.2.3 bus2=93776365002413B.1.2.3 switch=y r1=1e-4 x1=1e-4 length=0.001 units=km
new line.SC_5550378 phases=3 bus1=82272655002413.1.2.3 bus2=82272655002413B.1.2.3 switch=y r1=1e-4 x1=1e-4 length=0.001 units=km
open line.SC_5550378 1
new line.SC_5550379 phases=3 bus1=93306195002413.1.2.3 bus2=93306195002413B.1.2.3 switch=y r1=1e-4 x1=1e-4 length=0.001 units=km
open line.SC_5550379 1
new line.SC_5550381 phases=3 bus1=93493945002413.1.2.3 bus2=93493945002413B.1.2.3 switch=y r1=1e-4 x1=1e-4 length=0.001 units=km
new line.SC_5609991 phases=3 bus1=92036975002413.1.2.3 bus2=92036975002413B.1.2.3 switch=y r1=1e-4 x1=1e-4 length=0.001 units=km
new line.SC_5633911 phases=3 bus1=82272575002413.1.2.3 bus2=82272575002413B.1.2.3 switch=y r1=1e-4 x1=1e-4 length=0.001 units=km
new line.SC_5642276 phases=3 bus1=92919095002413.1.2.3 bus2=92919095002413B.1.2.3 switch=y r1=1e-4 x1=1e-4 length=0.001 units=km
open line.SC_5642276 1
new line.SC_5642291 phases=1 bus1=92919535002413.1 bus2=92919535002413B.1 switch=y r1=1e-4 x1=1e-4 length=0.001 units=km
open line.SC_5642291 1
new line.SC_5654324 phases=3 bus1=93285465002413.1.2.3 bus2=93285465002413B.1.2.3 switch=y r1=1e-4 x1=1e-4 length=0.001 units=km
open line.SC_5654324 1
new line.SC_5657536 phases=3 bus1=82279865002413.1.2.3 bus2=82279865002413B.1.2.3 switch=y r1=1e-4 x1=1e-4 length=0.001 units=km
new line.SC_5716403 phases=3 bus1=94965535002413.1.2.3 bus2=94965535002413B.1.2.3 switch=y r1=1e-4 x1=1e-4 length=0.001 units=km
open line.SC_5716403 1
new line.SC_5716404 phases=3 bus1=94965695002413.1.2.3 bus2=94965695002413B.1.2.3 switch=y r1=1e-4 x1=1e-4 length=0.001 units=km
open line.SC_5716404 1
new line.SC_5719774 phases=3 bus1=80484405002413.1.2.3 bus2=80484405002413B.1.2.3 switch=y r1=1e-4 x1=1e-4 length=0.001 units=km
open line.SC_5719774 1
new line.SC_5719775 phases=3 bus1=95148085002413.1.2.3 bus2=95148085002413B.1.2.3 switch=y r1=1e-4 x1=1e-4 length=0.001 units=km
open line.SC_5719775 1
new line.SC_5743275 phases=3 bus1=82278085002413.1.2.3 bus2=82278085002413B.1.2.3 switch=y r1=1e-4 x1=1e-4 length=0.001 units=km
open line.SC_5743275 1
new line.SC_5745318 phases=3 bus1=96363535002413.1.2.3 bus2=96363535002413B.1.2.3 switch=y r1=1e-4 x1=1e-4 length=0.001 units=km
open line.SC_5745318 1
new line.SC_5763571 phases=3 bus1=80521105002413.1.2.3 bus2=80521105002413B.1.2.3 switch=y r1=1e-4 x1=1e-4 length=0.001 units=km
new line.SC_5763573 phases=3 bus1=82275685002413.1.2.3 bus2=82275685002413B.1.2.3 switch=y r1=1e-4 x1=1e-4 length=0.001 units=km
new line.SC_5770731 phases=3 bus1=80521095002413.1.2.3 bus2=80521095002413B.1.2.3 switch=y r1=1e-4 x1=1e-4 length=0.001 units=km
new line.SC_5773016 phases=3 bus1=80522635002413.1.2.3 bus2=80522635002413B.1.2.3 switch=y r1=1e-4 x1=1e-4 length=0.001 units=km
new line.SC_5774295 phases=3 bus1=82275785002413.1.2.3 bus2=82275785002413B.1.2.3 switch=y r1=1e-4 x1=1e-4 length=0.001 units=km
open line.SC_5774295 1
new line.SC_5775818 phases=3 bus1=80521275002413.1.2.3 bus2=80521275002413B.1.2.3 switch=y r1=1e-4 x1=1e-4 length=0.001 units=km
new line.SC_5782306 phases=3 bus1=82275565002413.1.2.3 bus2=82275565002413B.1.2.3 switch=y r1=1e-4 x1=1e-4 length=0.001 units=km
new line.SC_5808307 phases=3 bus1=99234675002413.1.2.3 bus2=99234675002413B.1.2.3 switch=y r1=1e-4 x1=1e-4 length=0.001 units=km
new line.SC_DA0000291 phases=3 bus1=I888888103105002413.1.2.3 bus2=I888888103105002413B.1.2.3 switch=y r1=1e-4 x1=1e-4 length=0.001 units=km
new line.SC_SA0002797 phases=3 bus1=I888888307955002413.1.2.3 bus2=I888888307955002413B.1.2.3 switch=y r1=1e-4 x1=1e-4 length=0.001 units=km
new line.SC_SA0002798 phases=3 bus1=I888888477715002413.1.2.3 bus2=I888888477715002413B.1.2.3 switch=y r1=1e-4 x1=1e-4 length=0.001 units=km
new line.SC_SA0002799 phases=3 bus1=I888888477700.1.2.3 bus2=I888888477700B.1.2.3 switch=y r1=1e-4 x1=1e-4 length=0.001 units=km

! 5. Transformadores MT/BT de Distribuicao
new transformer.UNTRMT_5818075 phases=3 windings=2 %r=1.15 xhl=5.89 kva=500.0
~ wdg=1 bus=99234685002413.1.2.3 conn=delta kv=13.8
~ wdg=2 bus=99234685818075.1.2.3.0 conn=wye kv=0.38

new transformer.UNTRMT_5271740 phases=3 windings=2 %r=1.55 xhl=3.14 kva=75.0
~ wdg=1 bus=80527205002413.1.2.3 conn=delta kv=13.8
~ wdg=2 bus=80527205271740.1.2.3.0 conn=wye kv=0.38

new transformer.UNTRMT_5271833 phases=3 windings=2 %r=1.46 xhl=3.18 kva=112.0
~ wdg=1 bus=80522995002413.1.2.3 conn=delta kv=13.8
~ wdg=2 bus=80522995271833.1.2.3.0 conn=wye kv=0.38

new transformer.UNTRMT_5271843 phases=3 windings=2 %r=1.55 xhl=3.14 kva=75.0
~ wdg=1 bus=80521125002413.1.2.3 conn=delta kv=13.8
~ wdg=2 bus=80521125271843.1.2.3.0 conn=wye kv=0.38

new transformer.UNTRMT_5271844 phases=3 windings=2 %r=1.46 xhl=3.18 kva=112.0
~ wdg=1 bus=80522595002413.1.2.3 conn=delta kv=13.8
~ wdg=2 bus=80522595271844.1.2.3.0 conn=wye kv=0.38

new transformer.UNTRMT_5271845 phases=3 windings=2 %r=1.46 xhl=3.18 kva=112.0
~ wdg=1 bus=80522735002413.1.2.3 conn=delta kv=13.8
~ wdg=2 bus=80522735271845.1.2.3.0 conn=wye kv=0.38

new transformer.UNTRMT_5271847 phases=3 windings=2 %r=1.55 xhl=3.14 kva=75.0
~ wdg=1 bus=80521575002413.1.2.3 conn=delta kv=13.8
~ wdg=2 bus=80521575271847.1.2.3.0 conn=wye kv=0.38

new transformer.UNTRMT_5271848 phases=3 windings=2 %r=1.78 xhl=3.01 kva=30.0
~ wdg=1 bus=80521605002413.1.2.3 conn=delta kv=13.8
~ wdg=2 bus=80521605271848.1.2.3.0 conn=wye kv=0.38

new transformer.UNTRMT_5271849 phases=3 windings=2 %r=1.68 xhl=3.07 kva=45.0
~ wdg=1 bus=80521625002413.1.2.3 conn=delta kv=13.8
~ wdg=2 bus=80521625271849.1.2.3.0 conn=wye kv=0.38

new transformer.UNTRMT_5271850 phases=3 windings=2 %r=1.46 xhl=3.18 kva=112.0
~ wdg=1 bus=80521725002413.1.2.3 conn=delta kv=13.8
~ wdg=2 bus=80521725271850.1.2.3.0 conn=wye kv=0.38

new transformer.UNTRMT_5271851 phases=3 windings=2 %r=1.55 xhl=3.14 kva=75.0
~ wdg=1 bus=80521945002413.1.2.3 conn=delta kv=13.8
~ wdg=2 bus=80521945271851.1.2.3.0 conn=wye kv=0.38

new transformer.UNTRMT_5271852 phases=3 windings=2 %r=1.78 xhl=3.01 kva=30.0
~ wdg=1 bus=80529635002413.1.2.3 conn=delta kv=13.8
~ wdg=2 bus=80529635271852.1.2.3.0 conn=wye kv=0.38

new transformer.UNTRMT_5271865 phases=3 windings=2 %r=1.46 xhl=3.18 kva=112.0
~ wdg=1 bus=80527115002413.1.2.3 conn=delta kv=13.8
~ wdg=2 bus=80527115271865.1.2.3.0 conn=wye kv=0.38

new transformer.UNTRMT_5271866 phases=3 windings=2 %r=1.46 xhl=3.18 kva=112.0
~ wdg=1 bus=80524725002413.1.2.3 conn=delta kv=13.8
~ wdg=2 bus=80524725271866.1.2.3.0 conn=wye kv=0.38

new transformer.UNTRMT_5271880 phases=3 windings=2 %r=1.55 xhl=3.14 kva=75.0
~ wdg=1 bus=80527065002413.1.2.3 conn=delta kv=13.8
~ wdg=2 bus=80527065271880.1.2.3.0 conn=wye kv=0.38

new transformer.UNTRMT_5271881 phases=3 windings=2 %r=1.55 xhl=3.14 kva=75.0
~ wdg=1 bus=80527175002413.1.2.3 conn=delta kv=13.8
~ wdg=2 bus=80527175271881.1.2.3.0 conn=wye kv=0.38

new transformer.UNTRMT_5271885 phases=3 windings=2 %r=1.46 xhl=3.18 kva=112.0
~ wdg=1 bus=80526855002413.1.2.3 conn=delta kv=13.8
~ wdg=2 bus=80526855271885.1.2.3.0 conn=wye kv=0.38

new transformer.UNTRMT_5271886 phases=3 windings=2 %r=1.55 xhl=3.14 kva=75.0
~ wdg=1 bus=80527775002413.1.2.3 conn=delta kv=13.8
~ wdg=2 bus=80527775271886.1.2.3.0 conn=wye kv=0.38

new transformer.UNTRMT_5271887 phases=3 windings=2 %r=1.55 xhl=3.14 kva=75.0
~ wdg=1 bus=80526695002413.1.2.3 conn=delta kv=13.8
~ wdg=2 bus=80526695271887.1.2.3.0 conn=wye kv=0.38

new transformer.UNTRMT_5288930 phases=3 windings=2 %r=1.55 xhl=3.14 kva=75.0
~ wdg=1 bus=82276875002413.1.2.3 conn=delta kv=13.8
~ wdg=2 bus=82276875288930.1.2.3.0 conn=wye kv=0.38

new transformer.UNTRMT_5288931 phases=3 windings=2 %r=1.46 xhl=3.18 kva=112.0
~ wdg=1 bus=82276915002413.1.2.3 conn=delta kv=13.8
~ wdg=2 bus=82276915288931.1.2.3.0 conn=wye kv=0.38

new transformer.UNTRMT_5288938 phases=3 windings=2 %r=1.02 xhl=5.91 kva=112.0
~ wdg=1 bus=82278545002413.1.2.3 conn=delta kv=13.8
~ wdg=2 bus=82278545288938.1.2.3.0 conn=wye kv=0.38

new transformer.UNTRMT_5288938_2 phases=3 windings=2 %r=0.95 xhl=5.92 kva=112.0
~ wdg=1 bus=82278545002413.1.2.3 conn=delta kv=13.8
~ wdg=2 bus=82278545288938_2.1.2.3.0 conn=wye kv=0.38

new transformer.UNTRMT_5288938_3 phases=3 windings=2 %r=1.07 xhl=5.9 kva=112.0
~ wdg=1 bus=82278545002413.1.2.3 conn=delta kv=13.8
~ wdg=2 bus=82278545288938_3.1.2.3.0 conn=wye kv=0.38

new transformer.UNTRMT_5288939 phases=3 windings=2 %r=1.46 xhl=3.18 kva=112.0
~ wdg=1 bus=82278555002413.1.2.3 conn=delta kv=13.8
~ wdg=2 bus=82278555288939.1.2.3.0 conn=wye kv=0.38

new transformer.UNTRMT_5288942 phases=3 windings=2 %r=1.46 xhl=3.18 kva=112.0
~ wdg=1 bus=82281435002413.1.2.3 conn=delta kv=13.8
~ wdg=2 bus=82281435288942.1.2.3.0 conn=wye kv=0.38

new transformer.UNTRMT_5288943 phases=3 windings=2 %r=1.46 xhl=3.18 kva=112.0
~ wdg=1 bus=82280315002413.1.2.3 conn=delta kv=13.8
~ wdg=2 bus=82280315288943.1.2.3.0 conn=wye kv=0.38

new transformer.UNTRMT_5288944 phases=3 windings=2 %r=1.46 xhl=3.18 kva=112.0
~ wdg=1 bus=82280355002413.1.2.3 conn=delta kv=13.8
~ wdg=2 bus=82280355288944.1.2.3.0 conn=wye kv=0.38

new transformer.UNTRMT_5288948 phases=3 windings=2 %r=1.39 xhl=3.21 kva=150.0
~ wdg=1 bus=82276355002413.1.2.3 conn=delta kv=13.8
~ wdg=2 bus=82276355288948.1.2.3.0 conn=wye kv=0.38

new transformer.UNTRMT_5288949 phases=3 windings=2 %r=1.46 xhl=3.18 kva=112.0
~ wdg=1 bus=82276565002413.1.2.3 conn=delta kv=13.8
~ wdg=2 bus=82276565288949.1.2.3.0 conn=wye kv=0.38

new transformer.UNTRMT_5288952 phases=3 windings=2 %r=1.39 xhl=3.21 kva=150.0
~ wdg=1 bus=82277165002413.1.2.3 conn=delta kv=13.8
~ wdg=2 bus=82277165288952.1.2.3.0 conn=wye kv=0.38

new transformer.UNTRMT_5288954 phases=3 windings=2 %r=1.15 xhl=5.89 kva=112.0
~ wdg=1 bus=82277235002413.1.2.3 conn=delta kv=13.8
~ wdg=2 bus=82277235288954.1.2.3.0 conn=wye kv=0.38

new transformer.UNTRMT_5288957 phases=3 windings=2 %r=1.39 xhl=3.21 kva=150.0
~ wdg=1 bus=82276635002413.1.2.3 conn=delta kv=13.8
~ wdg=2 bus=82276635288957.1.2.3.0 conn=wye kv=0.38

new transformer.UNTRMT_5289031 phases=3 windings=2 %r=1.46 xhl=3.18 kva=112.0
~ wdg=1 bus=82276705002413.1.2.3 conn=delta kv=13.8
~ wdg=2 bus=82276705289031.1.2.3.0 conn=wye kv=0.38

new transformer.UNTRMT_5289032 phases=3 windings=2 %r=1.55 xhl=3.14 kva=75.0
~ wdg=1 bus=82274895002413.1.2.3 conn=delta kv=13.8
~ wdg=2 bus=82274895289032.1.2.3.0 conn=wye kv=0.38

new transformer.UNTRMT_5289034 phases=3 windings=2 %r=1.46 xhl=3.18 kva=112.0
~ wdg=1 bus=82281135002413.1.2.3 conn=delta kv=13.8
~ wdg=2 bus=82281135289034.1.2.3.0 conn=wye kv=0.38

new transformer.UNTRMT_5289035 phases=3 windings=2 %r=1.68 xhl=3.07 kva=45.0
~ wdg=1 bus=82275815002413.1.2.3 conn=delta kv=13.8
~ wdg=2 bus=82275815289035.1.2.3.0 conn=wye kv=0.38

new transformer.UNTRMT_5289036 phases=3 windings=2 %r=1.55 xhl=3.14 kva=75.0
~ wdg=1 bus=82276845002413.1.2.3 conn=delta kv=13.8
~ wdg=2 bus=82276845289036.1.2.3.0 conn=wye kv=0.38

new transformer.UNTRMT_5289037 phases=3 windings=2 %r=1.68 xhl=3.07 kva=45.0
~ wdg=1 bus=82276865002413.1.2.3 conn=delta kv=13.8
~ wdg=2 bus=82276865289037.1.2.3.0 conn=wye kv=0.38

new transformer.UNTRMT_5289038 phases=3 windings=2 %r=1.55 xhl=3.14 kva=75.0
~ wdg=1 bus=82276895002413.1.2.3 conn=delta kv=13.8
~ wdg=2 bus=82276895289038.1.2.3.0 conn=wye kv=0.38

new transformer.UNTRMT_5289044 phases=3 windings=2 %r=1.55 xhl=3.14 kva=75.0
~ wdg=1 bus=82277805002413.1.2.3 conn=delta kv=13.8
~ wdg=2 bus=82277805289044.1.2.3.0 conn=wye kv=0.38

new transformer.UNTRMT_5289045 phases=3 windings=2 %r=1.55 xhl=3.14 kva=75.0
~ wdg=1 bus=82277925002413.1.2.3 conn=delta kv=13.8
~ wdg=2 bus=82277925289045.1.2.3.0 conn=wye kv=0.38

new transformer.UNTRMT_5289046 phases=3 windings=2 %r=1.46 xhl=3.18 kva=112.0
~ wdg=1 bus=82277975002413.1.2.3 conn=delta kv=13.8
~ wdg=2 bus=82277975289046.1.2.3.0 conn=wye kv=0.38

new transformer.UNTRMT_5289047 phases=3 windings=2 %r=1.55 xhl=3.14 kva=75.0
~ wdg=1 bus=82277995002413.1.2.3 conn=delta kv=13.8
~ wdg=2 bus=82277995289047.1.2.3.0 conn=wye kv=0.38

new transformer.UNTRMT_5289048 phases=3 windings=2 %r=1.68 xhl=3.07 kva=45.0
~ wdg=1 bus=82278155002413.1.2.3 conn=delta kv=13.8
~ wdg=2 bus=82278155289048.1.2.3.0 conn=wye kv=0.38

new transformer.UNTRMT_5289049 phases=3 windings=2 %r=1.55 xhl=3.14 kva=75.0
~ wdg=1 bus=82278215002413.1.2.3 conn=delta kv=13.8
~ wdg=2 bus=82278215289049.1.2.3.0 conn=wye kv=0.38

new transformer.UNTRMT_5289050 phases=3 windings=2 %r=1.68 xhl=3.07 kva=45.0
~ wdg=1 bus=82278265002413.1.2.3 conn=delta kv=13.8
~ wdg=2 bus=82278265289050.1.2.3.0 conn=wye kv=0.38

new transformer.UNTRMT_5289051 phases=3 windings=2 %r=1.55 xhl=3.14 kva=75.0
~ wdg=1 bus=82278275002413.1.2.3 conn=delta kv=13.8
~ wdg=2 bus=82278275289051.1.2.3.0 conn=wye kv=0.38

new transformer.UNTRMT_5289052 phases=3 windings=2 %r=1.55 xhl=3.14 kva=75.0
~ wdg=1 bus=82278285002413.1.2.3 conn=delta kv=13.8
~ wdg=2 bus=82278285289052.1.2.3.0 conn=wye kv=0.38

new transformer.UNTRMT_5289059 phases=3 windings=2 %r=1.55 xhl=3.14 kva=75.0
~ wdg=1 bus=82278235002413.1.2.3 conn=delta kv=13.8
~ wdg=2 bus=82278235289059.1.2.3.0 conn=wye kv=0.38

new transformer.UNTRMT_5289060 phases=3 windings=2 %r=1.55 xhl=3.14 kva=75.0
~ wdg=1 bus=82278315002413.1.2.3 conn=delta kv=13.8
~ wdg=2 bus=82278315289060.1.2.3.0 conn=wye kv=0.38

new transformer.UNTRMT_5289061 phases=3 windings=2 %r=1.55 xhl=3.14 kva=75.0
~ wdg=1 bus=82278365002413.1.2.3 conn=delta kv=13.8
~ wdg=2 bus=82278365289061.1.2.3.0 conn=wye kv=0.38

new transformer.UNTRMT_5289062 phases=3 windings=2 %r=1.55 xhl=3.14 kva=75.0
~ wdg=1 bus=82278445002413.1.2.3 conn=delta kv=13.8
~ wdg=2 bus=82278445289062.1.2.3.0 conn=wye kv=0.38

new transformer.UNTRMT_5289066 phases=3 windings=2 %r=1.55 xhl=3.14 kva=75.0
~ wdg=1 bus=82280125002413.1.2.3 conn=delta kv=13.8
~ wdg=2 bus=82280125289066.1.2.3.0 conn=wye kv=0.38

new transformer.UNTRMT_5289067 phases=3 windings=2 %r=1.39 xhl=3.21 kva=150.0
~ wdg=1 bus=82280175002413.1.2.3 conn=delta kv=13.8
~ wdg=2 bus=82280175289067.1.2.3.0 conn=wye kv=0.38

new transformer.UNTRMT_5289069 phases=3 windings=2 %r=1.46 xhl=3.18 kva=112.0
~ wdg=1 bus=82278655002413.1.2.3 conn=delta kv=13.8
~ wdg=2 bus=82278655289069.1.2.3.0 conn=wye kv=0.38

new transformer.UNTRMT_5289070 phases=3 windings=2 %r=1.46 xhl=3.18 kva=112.0
~ wdg=1 bus=82278805002413.1.2.3 conn=delta kv=13.8
~ wdg=2 bus=82278805289070.1.2.3.0 conn=wye kv=0.38

new transformer.UNTRMT_5289071 phases=3 windings=2 %r=1.68 xhl=3.07 kva=45.0
~ wdg=1 bus=82281425002413.1.2.3 conn=delta kv=13.8
~ wdg=2 bus=82281425289071.1.2.3.0 conn=wye kv=0.38

new transformer.UNTRMT_5289072 phases=3 windings=2 %r=1.68 xhl=3.07 kva=45.0
~ wdg=1 bus=82281445002413.1.2.3 conn=delta kv=13.8
~ wdg=2 bus=82281445289072.1.2.3.0 conn=wye kv=0.38

new transformer.UNTRMT_5289073 phases=3 windings=2 %r=1.46 xhl=3.18 kva=112.0
~ wdg=1 bus=82279215002413.1.2.3 conn=delta kv=13.8
~ wdg=2 bus=82279215289073.1.2.3.0 conn=wye kv=0.38

new transformer.UNTRMT_5289074 phases=3 windings=2 %r=1.46 xhl=3.18 kva=112.0
~ wdg=1 bus=82280535002413.1.2.3 conn=delta kv=13.8
~ wdg=2 bus=82280535289074.1.2.3.0 conn=wye kv=0.38

new transformer.UNTRMT_5289077 phases=3 windings=2 %r=1.46 xhl=3.18 kva=112.0
~ wdg=1 bus=82276265002413.1.2.3 conn=delta kv=13.8
~ wdg=2 bus=82276265289077.1.2.3.0 conn=wye kv=0.38

new transformer.UNTRMT_5289078 phases=3 windings=2 %r=1.55 xhl=3.14 kva=75.0
~ wdg=1 bus=82276455002413.1.2.3 conn=delta kv=13.8
~ wdg=2 bus=82276455289078.1.2.3.0 conn=wye kv=0.38

new transformer.UNTRMT_5289079 phases=3 windings=2 %r=1.46 xhl=3.18 kva=112.0
~ wdg=1 bus=82276495002413.1.2.3 conn=delta kv=13.8
~ wdg=2 bus=82276495289079.1.2.3.0 conn=wye kv=0.38

new transformer.UNTRMT_5289080 phases=3 windings=2 %r=1.55 xhl=3.14 kva=75.0
~ wdg=1 bus=82274755002413.1.2.3 conn=delta kv=13.8
~ wdg=2 bus=82274755289080.1.2.3.0 conn=wye kv=0.38

new transformer.UNTRMT_5289081 phases=3 windings=2 %r=1.97 xhl=2.9 kva=15.0
~ wdg=1 bus=82281725002413.1.2.3 conn=delta kv=13.8
~ wdg=2 bus=82281725289081.1.2.3.0 conn=wye kv=0.38

new transformer.UNTRMT_5289082 phases=3 windings=2 %r=1.55 xhl=3.14 kva=75.0
~ wdg=1 bus=82275475002413.1.2.3 conn=delta kv=13.8
~ wdg=2 bus=82275475289082.1.2.3.0 conn=wye kv=0.38

new transformer.UNTRMT_5289083 phases=3 windings=2 %r=1.46 xhl=3.18 kva=112.0
~ wdg=1 bus=82275595002413.1.2.3 conn=delta kv=13.8
~ wdg=2 bus=82275595289083.1.2.3.0 conn=wye kv=0.38

new transformer.UNTRMT_5289084 phases=3 windings=2 %r=1.55 xhl=3.14 kva=75.0
~ wdg=1 bus=82275675002413.1.2.3 conn=delta kv=13.8
~ wdg=2 bus=82275675289084.1.2.3.0 conn=wye kv=0.38

new transformer.UNTRMT_5289085 phases=3 windings=2 %r=1.46 xhl=3.18 kva=112.0
~ wdg=1 bus=90606965002413.1.2.3 conn=delta kv=13.8
~ wdg=2 bus=90606965289085.1.2.3.0 conn=wye kv=0.38

new transformer.UNTRMT_5289086 phases=3 windings=2 %r=1.46 xhl=3.18 kva=112.0
~ wdg=1 bus=82276815002413.1.2.3 conn=delta kv=13.8
~ wdg=2 bus=82276815289086.1.2.3.0 conn=wye kv=0.38

new transformer.UNTRMT_5289087 phases=3 windings=2 %r=1.46 xhl=3.18 kva=112.0
~ wdg=1 bus=82277395002413.1.2.3 conn=delta kv=13.8
~ wdg=2 bus=82277395289087.1.2.3.0 conn=wye kv=0.38

new transformer.UNTRMT_5289090 phases=3 windings=2 %r=1.55 xhl=3.14 kva=75.0
~ wdg=1 bus=82276165002413.1.2.3 conn=delta kv=13.8
~ wdg=2 bus=82276165289090.1.2.3.0 conn=wye kv=0.38

new transformer.UNTRMT_5289091 phases=3 windings=2 %r=1.55 xhl=3.14 kva=75.0
~ wdg=1 bus=82276595002413.1.2.3 conn=delta kv=13.8
~ wdg=2 bus=82276595289091.1.2.3.0 conn=wye kv=0.38

new transformer.UNTRMT_5289092 phases=3 windings=2 %r=1.39 xhl=3.21 kva=150.0
~ wdg=1 bus=82278515002413.1.2.3 conn=delta kv=13.8
~ wdg=2 bus=82278515289092.1.2.3.0 conn=wye kv=0.38

new transformer.UNTRMT_5289094 phases=3 windings=2 %r=1.55 xhl=3.14 kva=75.0
~ wdg=1 bus=82281695002413.1.2.3 conn=delta kv=13.8
~ wdg=2 bus=82281695289094.1.2.3.0 conn=wye kv=0.38

new transformer.UNTRMT_5289095 phases=3 windings=2 %r=1.55 xhl=3.14 kva=75.0
~ wdg=1 bus=82280395002413.1.2.3 conn=delta kv=13.8
~ wdg=2 bus=82280395289095.1.2.3.0 conn=wye kv=0.38

new transformer.UNTRMT_5310829 phases=3 windings=2 %r=1.46 xhl=3.18 kva=112.0
~ wdg=1 bus=83731835002413.1.2.3 conn=delta kv=13.8
~ wdg=2 bus=83731835310829.1.2.3.0 conn=wye kv=0.38

new transformer.UNTRMT_5321656 phases=3 windings=2 %r=1.55 xhl=3.14 kva=75.0
~ wdg=1 bus=82278825002413.1.2.3 conn=delta kv=13.8
~ wdg=2 bus=82278825321656.1.2.3.0 conn=wye kv=0.38

new transformer.UNTRMT_5329599 phases=3 windings=2 %r=1.55 xhl=3.14 kva=75.0
~ wdg=1 bus=84928815002413.1.2.3 conn=delta kv=13.8
~ wdg=2 bus=84928815329599.1.2.3.0 conn=wye kv=0.38

new transformer.UNTRMT_5465313 phases=3 windings=2 %r=1.46 xhl=3.18 kva=112.0
~ wdg=1 bus=87573455002413.1.2.3 conn=delta kv=13.8
~ wdg=2 bus=87573455465313.1.2.3.0 conn=wye kv=0.38

new transformer.UNTRMT_5487986 phases=3 windings=2 %r=1.55 xhl=3.14 kva=75.0
~ wdg=1 bus=88181705002413.1.2.3 conn=delta kv=13.8
~ wdg=2 bus=88181705487986.1.2.3.0 conn=wye kv=0.38

new transformer.UNTRMT_5488601 phases=3 windings=2 %r=1.46 xhl=3.18 kva=112.0
~ wdg=1 bus=90704905002413.1.2.3 conn=delta kv=13.8
~ wdg=2 bus=90704905488601.1.2.3.0 conn=wye kv=0.38

new transformer.UNTRMT_5506977 phases=3 windings=2 %r=1.55 xhl=3.14 kva=75.0
~ wdg=1 bus=82281205002413.1.2.3 conn=delta kv=13.8
~ wdg=2 bus=82281205506977.1.2.3.0 conn=wye kv=0.38

new transformer.UNTRMT_5525103 phases=3 windings=2 %r=1.46 xhl=3.18 kva=112.0
~ wdg=1 bus=89317365002413.1.2.3 conn=delta kv=13.8
~ wdg=2 bus=89317365525103.1.2.3.0 conn=wye kv=0.38

new transformer.UNTRMT_5535917 phases=3 windings=2 %r=1.46 xhl=3.18 kva=112.0
~ wdg=1 bus=89719385002413.1.2.3 conn=delta kv=13.8
~ wdg=2 bus=89719385535917.1.2.3.0 conn=wye kv=0.38

new transformer.UNTRMT_5579449 phases=3 windings=2 %r=1.55 xhl=3.14 kva=75.0
~ wdg=1 bus=90983035002413.1.2.3 conn=delta kv=13.8
~ wdg=2 bus=90983035579449.1.2.3.0 conn=wye kv=0.38

new transformer.UNTRMT_5609993 phases=3 windings=2 %r=1.3 xhl=4.31 kva=225.0
~ wdg=1 bus=92036655002413.1.2.3 conn=delta kv=13.8
~ wdg=2 bus=92036655609993.1.2.3.0 conn=wye kv=0.38

new transformer.UNTRMT_5620038 phases=3 windings=2 %r=1.46 xhl=3.18 kva=112.0
~ wdg=1 bus=95680265002413.1.2.3 conn=delta kv=13.8
~ wdg=2 bus=95680265620038.1.2.3.0 conn=wye kv=0.38

new transformer.UNTRMT_5626252 phases=3 windings=2 %r=1.46 xhl=3.18 kva=112.0
~ wdg=1 bus=80587905002413.1.2.3 conn=delta kv=13.8
~ wdg=2 bus=80587905626252.1.2.3.0 conn=wye kv=0.38

new transformer.UNTRMT_5680503 phases=3 windings=2 %r=1.25 xhl=4.32 kva=300.0
~ wdg=1 bus=94144315002413.1.2.3 conn=delta kv=13.8
~ wdg=2 bus=94144315680503.1.2.3.0 conn=wye kv=0.38

new transformer.UNTRMT_5700149 phases=3 windings=2 %r=1.46 xhl=3.18 kva=112.0
~ wdg=1 bus=80483615002413.1.2.3 conn=delta kv=13.8
~ wdg=2 bus=80483615700149.1.2.3.0 conn=wye kv=0.38

new transformer.UNTRMT_5739031 phases=3 windings=2 %r=1.15 xhl=5.89 kva=500.0
~ wdg=1 bus=97435355002413.1.2.3 conn=delta kv=13.8
~ wdg=2 bus=97435355739031.1.2.3.0 conn=wye kv=0.38

new transformer.UNTRMT_5745313 phases=3 windings=2 %r=1.55 xhl=3.14 kva=75.0
~ wdg=1 bus=96363395002413.1.2.3 conn=delta kv=13.8
~ wdg=2 bus=96363395745313.1.2.3.0 conn=wye kv=0.38

new transformer.UNTRMT_5770810 phases=3 windings=2 %r=1.55 xhl=3.14 kva=75.0
~ wdg=1 bus=82275105002413.1.2.3 conn=delta kv=13.8
~ wdg=2 bus=82275105770810.1.2.3.0 conn=wye kv=0.38

new transformer.UNTRMT_5788506 phases=3 windings=2 %r=1.39 xhl=3.21 kva=150.0
~ wdg=1 bus=82278765002413.1.2.3 conn=delta kv=13.8
~ wdg=2 bus=82278765788506.1.2.3.0 conn=wye kv=0.38

new transformer.UNTRMT_5796018 phases=3 windings=2 %r=1.25 xhl=4.32 kva=300.0
~ wdg=1 bus=98483745002413.1.2.3 conn=delta kv=13.8
~ wdg=2 bus=98483745796018.1.2.3.0 conn=wye kv=0.38

! 6. Linhas de Baixa Tensao (BT)
new line.52880499 phases=3 bus1=80484445620038.1.2.3.0 bus2=80484425620038.1.2.3.0 r1=0.506 x1=0.1 length=0.024961 units=km normamps=157.0
new line.52880500 phases=3 bus1=80482965620038.1.2.3.0 bus2=80484365620038.1.2.3.0 r1=0.975 x1=0.47 length=0.02009 units=km normamps=152.0
new line.52880501 phases=3 bus1=80484365620038.1.2.3.0 bus2=80484355620038.1.2.3.0 r1=0.975 x1=0.47 length=0.037385 units=km normamps=152.0
new line.52880502 phases=3 bus1=80479655620038.1.2.3.0 bus2=80482965620038.1.2.3.0 r1=0.975 x1=0.47 length=0.024756 units=km normamps=152.0
new line.52880503 phases=3 bus1=80482965620038.1.2.3.0 bus2=80484375620038.1.2.3.0 r1=0.975 x1=0.47 length=0.0076 units=km normamps=152.0
new line.52880504 phases=3 bus1=80484385620038.1.2.3.0 bus2=80479655620038.1.2.3.0 r1=0.613 x1=0.45 length=0.039189 units=km normamps=203.0
new line.52880508 phases=3 bus1=80484405620038.1.2.3.0 bus2=95148065620038.1.2.3.0 r1=0.506 x1=0.1 length=0.012276 units=km normamps=157.0
new line.52880509 phases=3 bus1=80484415620038.1.2.3.0 bus2=80484425620038.1.2.3.0 r1=0.506 x1=0.1 length=0.035713 units=km normamps=157.0
new line.52880512 phases=3 bus1=80484455620038.1.2.3.0 bus2=80484445620038.1.2.3.0 r1=0.975 x1=0.47 length=0.037485 units=km normamps=152.0
new line.52880701 phases=3 bus1=80483785700149.1.2.3.0 bus2=80484025700149.1.2.3.0 r1=0.613 x1=0.45 length=0.007026 units=km normamps=203.0
new line.52880702 phases=3 bus1=80483785700149.1.2.3.0 bus2=80484055700149.1.2.3.0 r1=0.975 x1=0.47 length=0.058728 units=km normamps=152.0
new line.52880707 phases=3 bus1=80483585700149.1.2.3.0 bus2=80483595700149.1.2.3.0 r1=0.991 x1=0.1 length=0.009287 units=km normamps=100.0
new line.52880710 phases=3 bus1=80483615700149.1.2.3.0 bus2=80483625700149.1.2.3.0 r1=0.991 x1=0.1 length=0.022424 units=km normamps=100.0
new line.52880712 phases=3 bus1=80483765700149.1.2.3.0 bus2=80483775700149.1.2.3.0 r1=0.975 x1=0.47 length=0.027271 units=km normamps=152.0
new line.52886317 phases=3 bus1=80521125271843.1.2.3.0 bus2=80521115271843.1.2.3.0 r1=0.613 x1=0.45 length=0.039892 units=km normamps=203.0
new line.52886318 phases=3 bus1=80521135271843.1.2.3.0 bus2=80521125271843.1.2.3.0 r1=0.613 x1=0.45 length=0.034817 units=km normamps=203.0
new line.52886320 phases=3 bus1=80521155271843.1.2.3.0 bus2=80521145271843.1.2.3.0 r1=0.613 x1=0.45 length=0.055792 units=km normamps=203.0
new line.52886321 phases=3 bus1=80521155271843.1.2.3.0 bus2=80521165271843.1.2.3.0 r1=0.975 x1=0.47 length=0.022419 units=km normamps=152.0
new line.52886351 phases=3 bus1=80527885271843.1.2.3.0 bus2=80526415271843.1.2.3.0 r1=0.613 x1=0.45 length=0.041598 units=km normamps=203.0
new line.52886352 phases=3 bus1=80527905271843.1.2.3.0 bus2=80527895271843.1.2.3.0 r1=0.975 x1=0.47 length=0.03911 units=km normamps=152.0
new line.52886353 phases=3 bus1=80521165271843.1.2.3.0 bus2=80527905271843.1.2.3.0 r1=0.975 x1=0.47 length=0.04242 units=km normamps=152.0
new line.52886356 phases=3 bus1=80527925271843.1.2.3.0 bus2=80527935271843.1.2.3.0 r1=0.975 x1=0.47 length=0.034712 units=km normamps=152.0
new line.52886358 phases=3 bus1=80527945271843.1.2.3.0 bus2=80527955271843.1.2.3.0 r1=0.975 x1=0.47 length=0.027438 units=km normamps=152.0
new line.52886364 phases=3 bus1=80522585271844.1.2.3.0 bus2=80522575271844.1.2.3.0 r1=0.613 x1=0.45 length=0.031217 units=km normamps=203.0
new line.52886365 phases=3 bus1=80522595271844.1.2.3.0 bus2=80522585271844.1.2.3.0 r1=0.613 x1=0.45 length=0.033138 units=km normamps=203.0
new line.52886366 phases=3 bus1=80522605271844.1.2.3.0 bus2=80522595271844.1.2.3.0 r1=0.613 x1=0.45 length=0.035625 units=km normamps=203.0
new line.52886367 phases=3 bus1=80522615271844.1.2.3.0 bus2=80522605271844.1.2.3.0 r1=0.613 x1=0.45 length=0.040105 units=km normamps=203.0
new line.52886370 phases=3 bus1=80480835271844.1.2.3.0 bus2=80480845271844.1.2.3.0 r1=1.551 x1=0.49 length=0.010787 units=km normamps=114.0
new line.52886371 phases=3 bus1=80481045271844.1.2.3.0 bus2=80480835271844.1.2.3.0 r1=0.613 x1=0.45 length=0.031974 units=km normamps=203.0
new line.52886372 phases=3 bus1=80481045271844.1.2.3.0 bus2=80522645271844.1.2.3.0 r1=0.975 x1=0.47 length=0.018221 units=km normamps=152.0
new line.52886373 phases=1 bus1=80522565271844.1.0 bus2=80528095271844.1.0 r1=1.564 x1=0.51 length=0.014278 units=km normamps=120.0
new line.52886374 phases=3 bus1=80527975271844.1.2.3.0 bus2=95145835271844.1.2.3.0 r1=0.991 x1=0.1 length=0.011526 units=km normamps=100.0
new line.52886376 phases=3 bus1=80528015271844.1.2.3.0 bus2=80527995271844.1.2.3.0 r1=0.991 x1=0.1 length=0.016347 units=km normamps=100.0
new line.52886379 phases=3 bus1=80522565271844.1.2.3.0 bus2=80527975271844.1.2.3.0 r1=0.975 x1=0.47 length=0.052236 units=km normamps=152.0
new line.52886380 phases=3 bus1=80527975271844.1.2.3.0 bus2=80528005271844.1.2.3.0 r1=0.975 x1=0.47 length=0.027624 units=km normamps=152.0
new line.52886385 phases=3 bus1=80522695271845.1.2.3.0 bus2=80522705271845.1.2.3.0 r1=0.975 x1=0.47 length=0.036153 units=km normamps=152.0
new line.52886389 phases=3 bus1=80522735271845.1.2.3.0 bus2=80522745271845.1.2.3.0 r1=0.613 x1=0.45 length=0.034862 units=km normamps=203.0
new line.52886390 phases=3 bus1=80522745271845.1.2.3.0 bus2=80522755271845.1.2.3.0 r1=0.613 x1=0.45 length=0.028073 units=km normamps=203.0
new line.52886391 phases=3 bus1=80522755271845.1.2.3.0 bus2=80522765271845.1.2.3.0 r1=0.613 x1=0.45 length=0.013803 units=km normamps=203.0
new line.52886435 phases=3 bus1=80521515271847.1.2.3.0 bus2=80521525271847.1.2.3.0 r1=0.975 x1=0.47 length=0.036641 units=km normamps=152.0
new line.52886436 phases=3 bus1=80521525271847.1.2.3.0 bus2=80521535271847.1.2.3.0 r1=0.613 x1=0.45 length=0.037445 units=km normamps=203.0
new line.52886438 phases=3 bus1=80521555271847.1.2.3.0 bus2=80521545271847.1.2.3.0 r1=0.975 x1=0.47 length=0.034352 units=km normamps=152.0
new line.52886442 phases=3 bus1=80521585271847.1.2.3.0 bus2=80521615271847.1.2.3.0 r1=0.613 x1=0.45 length=0.036403 units=km normamps=203.0
new line.52886443 phases=3 bus1=80523025271849.1.2.3.0 bus2=80523035271849.1.2.3.0 r1=0.975 x1=0.47 length=0.023937 units=km normamps=152.0
new line.52886444 phases=3 bus1=80521685271849.1.2.3.0 bus2=80523025271849.1.2.3.0 r1=0.613 x1=0.45 length=0.02865 units=km normamps=203.0
new line.52886447 phases=3 bus1=80521615271849.1.2.3.0 bus2=80521625271849.1.2.3.0 r1=0.613 x1=0.45 length=0.036239 units=km normamps=203.0
new line.52886448 phases=3 bus1=80521635271849.1.2.3.0 bus2=80521615271849.1.2.3.0 r1=0.975 x1=0.47 length=0.015907 units=km normamps=152.0
new line.52886449 phases=3 bus1=80521645271849.1.2.3.0 bus2=80521635271849.1.2.3.0 r1=0.975 x1=0.47 length=0.035259 units=km normamps=152.0
...